PHYSICAL_PROBLEM= EULER
MATH_PROBLEM= DIRECT
RESTART_SOL= NO
MACH_NUMBER= 0.8
AOA= 1.25
FREESTREAM_PRESSURE= 101325.0
FREESTREAM_TEMPERATURE= 288.15
REF_ORIGIN_MOMENT_X= 0.25
REF_ORIGIN_MOMENT_Y= 0.00
REF_ORIGIN_MOMENT_Z= 0.00
REF_LENGTH_MOMENT= 1.0
REF_AREA= 1.0
REF_DIMENSIONALIZATION= FREESTREAM_PRESS_EQ_ONE
MARKER_EULER= ( airfoil )
MARKER_FAR= ( farfield )
MARKER_PLOTTING= ( airfoil )
MARKER_MONITORING= ( airfoil )
NUM_METHOD_GRAD= GREEN_GAUSS
CFL_NUMBER= 10.0
CFL_ADAPT= NO
CFL_ADAPT_PARAM= ( 1.5, 0.5, 1.0, 100.0 )
RK_ALPHA_COEFF= ( 0.66667, 0.66667, 1.000000 )
EXT_ITER= 400
LINEAR_SOLVER= FGMRES
LINEAR_SOLVER_PREC= LU_SGS
LINEAR_SOLVER_ERROR= 1E-4
LINEAR_SOLVER_ITER= 2
MGLEVEL= 1
MGCYCLE= V_CYCLE
MG_PRE_SMOOTH= ( 1, 2, 3, 3 )
MG_POST_SMOOTH= ( 0, 0, 0, 0 )
MG_CORRECTION_SMOOTH= ( 0, 0, 0, 0 )
MG_DAMP_RESTRICTION= 1.0
MG_DAMP_PROLONGATION= 1.0
CONV_NUM_METHOD_FLOW= JST
SLOPE_LIMITER_FLOW= VENKATAKRISHNAN
AD_COEFF_FLOW= ( 0.15, 0.5, 0.02 )
TIME_DISCRE_FLOW= EULER_IMPLICIT
OBJECTIVE_FUNCTION= DRAG
CONV_NUM_METHOD_ADJFLOW= JST
SLOPE_LIMITER_ADJFLOW= VENKATAKRISHNAN
AD_COEFF_ADJFLOW= ( 0.15, 0.0, 0.02 )
TIME_DISCRE_ADJFLOW= EULER_IMPLICIT
CFL_REDUCTION_ADJFLOW= 0.8
LIMIT_ADJFLOW= 1E6
GEO_MODE= FUNCTION
GEO_MARKER= ( airfoil )
DV_KIND= HICKS_HENNE, HICKS_HENNE, HICKS_HENNE, HICKS_HENNE, HICKS_HENNE, HICKS_HENNE, HICKS_HENNE, HICKS_HENNE, HICKS_HENNE, HICKS_HENNE, HICKS_HENNE, HICKS_HENNE, HICKS_HENNE, HICKS_HENNE, HICKS_HENNE, HICKS_HENNE, HICKS_HENNE, HICKS_HENNE, HICKS_HENNE, HICKS_HENNE, HICKS_HENNE, HICKS_HENNE, HICKS_HENNE, HICKS_HENNE, HICKS_HENNE, HICKS_HENNE, HICKS_HENNE, HICKS_HENNE, HICKS_HENNE, HICKS_HENNE, HICKS_HENNE, HICKS_HENNE, HICKS_HENNE, HICKS_HENNE, HICKS_HENNE, HICKS_HENNE, HICKS_HENNE, HICKS_HENNE
DV_MARKER= ( ( airfoil ) )
DV_PARAM= ( 1.0, 0.05) ; ( 1.0, 0.1) ; ( 1.0, 0.15) ; ( 1.0, 0.2) ; ( 1.0, 0.25) ; ( 1.0, 0.3) ; ( 1.0, 0.35) ; ( 1.0, 0.4) ; ( 1.0, 0.45) ; ( 1.0, 0.5) ; ( 1.0, 0.55) ; ( 1.0, 0.6) ; ( 1.0, 0.65) ; ( 1.0, 0.7) ; ( 1.0, 0.75) ; ( 1.0, 0.8) ; ( 1.0, 0.85) ; ( 1.0, 0.9) ; ( 1.0, 0.95) ; ( 0.0, 0.05) ; ( 0.0, 0.1) ; ( 0.0, 0.15) ; ( 0.0, 0.2) ; ( 0.0, 0.25) ; ( 0.0, 0.3) ; ( 0.0, 0.35) ; ( 0.0, 0.4) ; ( 0.0, 0.45) ; ( 0.0, 0.5) ; ( 0.0, 0.55) ; ( 0.0, 0.6) ; ( 0.0, 0.65) ; ( 0.0, 0.7) ; ( 0.0, 0.75) ; ( 0.0, 0.8) ; ( 0.0, 0.85) ; ( 0.0, 0.9) ; ( 0.0, 0.95) 
DV_VALUE= 0.000854668017934, -7.60542940257e-05, -0.00119218864208, 0.00221731143748, 0.0032528261012, 0.00136190849761, -0.00268600699997, -0.00169155521357, -0.00102775018475, 0.00194184905059, -0.00184607762993, 0.0026190668184, 0.00249415632203, 0.000228703351417, -0.000124208676249, -0.000682946636172, 0.000311340436131, -0.00362902810844, 0.00191696166107, -0.00167253414692, -0.00144583977683, -0.000658155623245, -0.0010583893173, 0.000380127338842, -0.0029150449903, 0.00186043229657, -0.00115594951096, 0.0026283201287, -0.00277548003878, 0.00330767822412, 0.00116385359135, -0.000717777206196, 0.00260494650627, -0.0035121987803, -0.00128516021523, -0.00359574622848, -0.000973744027603, -0.00363757754589
DEFORM_LINEAR_ITER= 500
DEFORM_NONLINEAR_ITER= 1
DEFORM_CONSOLE_OUTPUT= YES
DEFORM_TOL_FACTOR= 0.001
DEFORM_STIFFNESS_TYPE= INVERSE_VOLUME
CONV_CRITERIA= RESIDUAL
RESIDUAL_REDUCTION= 6
RESIDUAL_MINVAL= -4
STARTCONV_ITER= 10
CAUCHY_ELEMS= 100
CAUCHY_EPS= 1E-6
CAUCHY_FUNC_FLOW= DRAG
CAUCHY_FUNC_ADJFLOW= SENS_GEOMETRY
MESH_FILENAME= mesh_NACA0012_inv.su2
MESH_FORMAT= SU2
MESH_OUT_FILENAME= mesh.su2
SOLUTION_FLOW_FILENAME= solution_flow.dat
SOLUTION_ADJ_FILENAME= solution_adj.dat
OUTPUT_FORMAT= PARAVIEW
CONV_FILENAME= history
RESTART_FLOW_FILENAME= restart_flow.dat
RESTART_ADJ_FILENAME= restart_adj.dat
VOLUME_FLOW_FILENAME= flow
VOLUME_ADJ_FILENAME= adjoint
GRAD_OBJFUNC_FILENAME= of_grad.dat
SURFACE_FLOW_FILENAME= surface_flow
SURFACE_ADJ_FILENAME= surface_adjoint
WRT_SOL_FREQ= 250.0
WRT_SOL_FREQ_DUALTIME= 1
WRT_CON_FREQ= 1
WRT_CON_FREQ_DUALTIME= 10
WRT_HALO= NO
CONSOLE_OUTPUT_VERBOSITY= NONE
OPT_OBJECTIVE= DRAG * 0.001
OPT_CONSTRAINT= NONE
OPT_ITERATIONS= 100
OPT_ACCURACY= 1E-6
OPT_BOUND_UPPER= 0.1
OPT_BOUND_LOWER= -0.1
DEFINITION_DV= ( 1 , 1.0 | airfoil  | 0.0 , 0.05  ); ( 1 , 1.0 | airfoil  | 0.0 , 0.1  ); ( 1 , 1.0 | airfoil  | 0.0 , 0.15  ); ( 1 , 1.0 | airfoil  | 0.0 , 0.2  ); ( 1 , 1.0 | airfoil  | 0.0 , 0.25  ); ( 1 , 1.0 | airfoil  | 0.0 , 0.3  ); ( 1 , 1.0 | airfoil  | 0.0 , 0.35  ); ( 1 , 1.0 | airfoil  | 0.0 , 0.4  ); ( 1 , 1.0 | airfoil  | 0.0 , 0.45  ); ( 1 , 1.0 | airfoil  | 0.0 , 0.5  ); ( 1 , 1.0 | airfoil  | 0.0 , 0.55  ); ( 1 , 1.0 | airfoil  | 0.0 , 0.6  ); ( 1 , 1.0 | airfoil  | 0.0 , 0.65  ); ( 1 , 1.0 | airfoil  | 0.0 , 0.7  ); ( 1 , 1.0 | airfoil  | 0.0 , 0.75  ); ( 1 , 1.0 | airfoil  | 0.0 , 0.8  ); ( 1 , 1.0 | airfoil  | 0.0 , 0.85  ); ( 1 , 1.0 | airfoil  | 0.0 , 0.9  ); ( 1 , 1.0 | airfoil  | 0.0 , 0.95  ); ( 1 , 1.0 | airfoil  | 1.0 , 0.05  ); ( 1 , 1.0 | airfoil  | 1.0 , 0.1  ); ( 1 , 1.0 | airfoil  | 1.0 , 0.15  ); ( 1 , 1.0 | airfoil  | 1.0 , 0.2  ); ( 1 , 1.0 | airfoil  | 1.0 , 0.25  ); ( 1 , 1.0 | airfoil  | 1.0 , 0.3  ); ( 1 , 1.0 | airfoil  | 1.0 , 0.35  ); ( 1 , 1.0 | airfoil  | 1.0 , 0.4  ); ( 1 , 1.0 | airfoil  | 1.0 , 0.45  ); ( 1 , 1.0 | airfoil  | 1.0 , 0.5  ); ( 1 , 1.0 | airfoil  | 1.0 , 0.55  ); ( 1 , 1.0 | airfoil  | 1.0 , 0.6  ); ( 1 , 1.0 | airfoil  | 1.0 , 0.65  ); ( 1 , 1.0 | airfoil  | 1.0 , 0.7  ); ( 1 , 1.0 | airfoil  | 1.0 , 0.75  ); ( 1 , 1.0 | airfoil  | 1.0 , 0.8  ); ( 1 , 1.0 | airfoil  | 1.0 , 0.85  ); ( 1 , 1.0 | airfoil  | 1.0 , 0.9  ); ( 1 , 1.0 | airfoil  | 1.0 , 0.95  )
DV_VALUE_NEW= 0.000854668017934, -7.60542940257e-05, -0.00119218864208, 0.00221731143748, 0.0032528261012, 0.00136190849761, -0.00268600699997, -0.00169155521357, -0.00102775018475, 0.00194184905059, -0.00184607762993, 0.0026190668184, 0.00249415632203, 0.000228703351417, -0.000124208676249, -0.000682946636172, 0.000311340436131, -0.00362902810844, 0.00191696166107, -0.00167253414692, -0.00144583977683, -0.000658155623245, -0.0010583893173, 0.000380127338842, -0.0029150449903, 0.00186043229657, -0.00115594951096, 0.0026283201287, -0.00277548003878, 0.00330767822412, 0.00116385359135, -0.000717777206196, 0.00260494650627, -0.0035121987803, -0.00128516021523, -0.00359574622848, -0.000973744027603, -0.00363757754589
DV_VALUE_OLD= 0
OPT_COMBINE_OBJECTIVE= NO
VALUE_OBJFUNC_FILENAME= of_eval.dat
NUMBER_PART= 1
