PHYSICAL_PROBLEM= EULER
MATH_PROBLEM= DIRECT
RESTART_SOL= YES
MACH_NUMBER= 0.8
AOA= 1.25
FREESTREAM_PRESSURE= 101325.0
FREESTREAM_TEMPERATURE= 288.15
REF_ORIGIN_MOMENT_X= 0.25
REF_ORIGIN_MOMENT_Y= 0.00
REF_ORIGIN_MOMENT_Z= 0.00
REF_LENGTH_MOMENT= 1.0
REF_AREA= 1.0
REF_DIMENSIONALIZATION= FREESTREAM_PRESS_EQ_ONE
MARKER_EULER= ( airfoil )
MARKER_FAR= ( farfield )
MARKER_PLOTTING= ( airfoil )
MARKER_MONITORING= ( airfoil )
NUM_METHOD_GRAD= GREEN_GAUSS
CFL_NUMBER= 10.0
CFL_ADAPT= NO
CFL_ADAPT_PARAM= ( 1.5, 0.5, 1.0, 100.0 )
RK_ALPHA_COEFF= ( 0.66667, 0.66667, 1.000000 )
EXT_ITER= 1000
LINEAR_SOLVER= FGMRES
LINEAR_SOLVER_PREC= LU_SGS
LINEAR_SOLVER_ERROR= 1E-4
LINEAR_SOLVER_ITER= 2
MGLEVEL= 2
MGCYCLE= V_CYCLE
MG_PRE_SMOOTH= ( 1, 2, 3, 3 )
MG_POST_SMOOTH= ( 0, 0, 0, 0 )
MG_CORRECTION_SMOOTH= ( 0, 0, 0, 0 )
MG_DAMP_RESTRICTION= 1.0
MG_DAMP_PROLONGATION= 1.0
CONV_NUM_METHOD_FLOW= JST
SLOPE_LIMITER_FLOW= VENKATAKRISHNAN
AD_COEFF_FLOW= ( 0.15, 0.5, 0.02 )
TIME_DISCRE_FLOW= EULER_IMPLICIT
OBJECTIVE_FUNCTION= DRAG
CONV_NUM_METHOD_ADJFLOW= JST
SLOPE_LIMITER_ADJFLOW= VENKATAKRISHNAN
AD_COEFF_ADJFLOW= ( 0.15, 0.0, 0.02 )
TIME_DISCRE_ADJFLOW= EULER_IMPLICIT
CFL_REDUCTION_ADJFLOW= 0.8
LIMIT_ADJFLOW= 1E6
GEO_MODE= FUNCTION
GEO_MARKER= ( airfoil )
DV_KIND= HICKS_HENNE, HICKS_HENNE, HICKS_HENNE, HICKS_HENNE, HICKS_HENNE, HICKS_HENNE, HICKS_HENNE, HICKS_HENNE, HICKS_HENNE, HICKS_HENNE, HICKS_HENNE, HICKS_HENNE, HICKS_HENNE, HICKS_HENNE, HICKS_HENNE, HICKS_HENNE, HICKS_HENNE, HICKS_HENNE, HICKS_HENNE, HICKS_HENNE, HICKS_HENNE, HICKS_HENNE, HICKS_HENNE, HICKS_HENNE, HICKS_HENNE, HICKS_HENNE, HICKS_HENNE, HICKS_HENNE, HICKS_HENNE, HICKS_HENNE, HICKS_HENNE, HICKS_HENNE, HICKS_HENNE, HICKS_HENNE, HICKS_HENNE, HICKS_HENNE, HICKS_HENNE, HICKS_HENNE
DV_MARKER= ( airfoil )
DV_PARAM= ( 0.0, 0.05) ; ( 0.0, 0.1) ; ( 0.0, 0.15) ; ( 0.0, 0.2) ; ( 0.0, 0.25) ; ( 0.0, 0.3) ; ( 0.0, 0.35) ; ( 0.0, 0.4) ; ( 0.0, 0.45) ; ( 0.0, 0.5) ; ( 0.0, 0.55) ; ( 0.0, 0.6) ; ( 0.0, 0.65) ; ( 0.0, 0.7) ; ( 0.0, 0.75) ; ( 0.0, 0.8) ; ( 0.0, 0.85) ; ( 0.0, 0.9) ; ( 0.0, 0.95) ; ( 1.0, 0.05) ; ( 1.0, 0.1) ; ( 1.0, 0.15) ; ( 1.0, 0.2) ; ( 1.0, 0.25) ; ( 1.0, 0.3) ; ( 1.0, 0.35) ; ( 1.0, 0.4) ; ( 1.0, 0.45) ; ( 1.0, 0.5) ; ( 1.0, 0.55) ; ( 1.0, 0.6) ; ( 1.0, 0.65) ; ( 1.0, 0.7) ; ( 1.0, 0.75) ; ( 1.0, 0.8) ; ( 1.0, 0.85) ; ( 1.0, 0.9) ; ( 1.0, 0.95) 
DV_VALUE= 0.00142777923601, 0.00016802071543, -0.000441206872654, -0.000622590539348, -0.000515292439205, -0.000240116111947, 8.97634456668e-05, 0.000379582540793, 0.000569377930844, 0.000643127879369, 0.000621831201856, 0.000540199674062, 0.000417657315522, 0.000242851418937, -2.55085599e-06, -0.000240280167828, -0.000124931584443, 0.000371966671917, -0.00129646336709, 0.00138997220744, -0.00061138021116, -0.00163131922026, -0.00201100394609, -0.00187204289377, -0.00133827783542, -0.000587121170789, 0.000164693514808, 0.000712786099173, 0.000930442233107, 0.000817005762146, 0.000497348225039, 0.00015648321875, -6.69511279193e-05, -0.000157591730555, -0.000200175899512, -0.000277638709464, -0.00035214540002, 8.24705308575e-05
DEFORM_LINEAR_ITER= 500
DEFORM_NONLINEAR_ITER= 1
DEFORM_CONSOLE_OUTPUT= YES
DEFORM_TOL_FACTOR= 0.001
DEFORM_STIFFNESS_TYPE= INVERSE_VOLUME
CONV_CRITERIA= RESIDUAL
RESIDUAL_REDUCTION= 6
RESIDUAL_MINVAL= -10
STARTCONV_ITER= 10
CAUCHY_ELEMS= 100
CAUCHY_EPS= 1E-6
CAUCHY_FUNC_FLOW= DRAG
CAUCHY_FUNC_ADJFLOW= SENS_GEOMETRY
MESH_FILENAME= mesh_deform.su2
MESH_FORMAT= SU2
MESH_OUT_FILENAME= mesh_out.su2
SOLUTION_FLOW_FILENAME= solution_flow.dat
SOLUTION_ADJ_FILENAME= solution_adj.dat
OUTPUT_FORMAT= PARAVIEW
CONV_FILENAME= history_direct
RESTART_FLOW_FILENAME= restart_flow.dat
RESTART_ADJ_FILENAME= restart_adj.dat
VOLUME_FLOW_FILENAME= flow
VOLUME_ADJ_FILENAME= adjoint
GRAD_OBJFUNC_FILENAME= of_grad.dat
SURFACE_FLOW_FILENAME= surface_flow
SURFACE_ADJ_FILENAME= surface_adjoint
WRT_SOL_FREQ= 250.0
WRT_SOL_FREQ_DUALTIME= 1
WRT_CON_FREQ= 1
WRT_CON_FREQ_DUALTIME= 10
WRT_HALO= NO
OPT_OBJECTIVE= DRAG * 0.001
OPT_CONSTRAINT= NONE
OPT_ITERATIONS= 100
OPT_ACCURACY= 1E-6
OPT_BOUND_UPPER= 0.005
OPT_BOUND_LOWER= -0.005
DEFINITION_DV= ( 1 , 1.0 | airfoil  | 0.0 , 0.05  ); ( 1 , 1.0 | airfoil  | 0.0 , 0.1  ); ( 1 , 1.0 | airfoil  | 0.0 , 0.15  ); ( 1 , 1.0 | airfoil  | 0.0 , 0.2  ); ( 1 , 1.0 | airfoil  | 0.0 , 0.25  ); ( 1 , 1.0 | airfoil  | 0.0 , 0.3  ); ( 1 , 1.0 | airfoil  | 0.0 , 0.35  ); ( 1 , 1.0 | airfoil  | 0.0 , 0.4  ); ( 1 , 1.0 | airfoil  | 0.0 , 0.45  ); ( 1 , 1.0 | airfoil  | 0.0 , 0.5  ); ( 1 , 1.0 | airfoil  | 0.0 , 0.55  ); ( 1 , 1.0 | airfoil  | 0.0 , 0.6  ); ( 1 , 1.0 | airfoil  | 0.0 , 0.65  ); ( 1 , 1.0 | airfoil  | 0.0 , 0.7  ); ( 1 , 1.0 | airfoil  | 0.0 , 0.75  ); ( 1 , 1.0 | airfoil  | 0.0 , 0.8  ); ( 1 , 1.0 | airfoil  | 0.0 , 0.85  ); ( 1 , 1.0 | airfoil  | 0.0 , 0.9  ); ( 1 , 1.0 | airfoil  | 0.0 , 0.95  ); ( 1 , 1.0 | airfoil  | 1.0 , 0.05  ); ( 1 , 1.0 | airfoil  | 1.0 , 0.1  ); ( 1 , 1.0 | airfoil  | 1.0 , 0.15  ); ( 1 , 1.0 | airfoil  | 1.0 , 0.2  ); ( 1 , 1.0 | airfoil  | 1.0 , 0.25  ); ( 1 , 1.0 | airfoil  | 1.0 , 0.3  ); ( 1 , 1.0 | airfoil  | 1.0 , 0.35  ); ( 1 , 1.0 | airfoil  | 1.0 , 0.4  ); ( 1 , 1.0 | airfoil  | 1.0 , 0.45  ); ( 1 , 1.0 | airfoil  | 1.0 , 0.5  ); ( 1 , 1.0 | airfoil  | 1.0 , 0.55  ); ( 1 , 1.0 | airfoil  | 1.0 , 0.6  ); ( 1 , 1.0 | airfoil  | 1.0 , 0.65  ); ( 1 , 1.0 | airfoil  | 1.0 , 0.7  ); ( 1 , 1.0 | airfoil  | 1.0 , 0.75  ); ( 1 , 1.0 | airfoil  | 1.0 , 0.8  ); ( 1 , 1.0 | airfoil  | 1.0 , 0.85  ); ( 1 , 1.0 | airfoil  | 1.0 , 0.9  ); ( 1 , 1.0 | airfoil  | 1.0 , 0.95  )
DV_VALUE_NEW= 0.00142777923601, 0.00016802071543, -0.000441206872654, -0.000622590539348, -0.000515292439205, -0.000240116111947, 8.97634456668e-05, 0.000379582540793, 0.000569377930844, 0.000643127879369, 0.000621831201856, 0.000540199674062, 0.000417657315522, 0.000242851418937, -2.55085599e-06, -0.000240280167828, -0.000124931584443, 0.000371966671917, -0.00129646336709, 0.00138997220744, -0.00061138021116, -0.00163131922026, -0.00201100394609, -0.00187204289377, -0.00133827783542, -0.000587121170789, 0.000164693514808, 0.000712786099173, 0.000930442233107, 0.000817005762146, 0.000497348225039, 0.00015648321875, -6.69511279193e-05, -0.000157591730555, -0.000200175899512, -0.000277638709464, -0.00035214540002, 8.24705308575e-05
DV_VALUE_OLD= 0.00142777923601, 0.00016802071543, -0.000441206872654, -0.000622590539348, -0.000515292439205, -0.000240116111947, 8.97634456668e-05, 0.000379582540793, 0.000569377930844, 0.000643127879369, 0.000621831201856, 0.000540199674062, 0.000417657315522, 0.000242851418937, -2.55085599e-06, -0.000240280167828, -0.000124931584443, 0.000371966671917, -0.00129646336709, 0.00138997220744, -0.00061138021116, -0.00163131922026, -0.00201100394609, -0.00187204289377, -0.00133827783542, -0.000587121170789, 0.000164693514808, 0.000712786099173, 0.000930442233107, 0.000817005762146, 0.000497348225039, 0.00015648321875, -6.69511279193e-05, -0.000157591730555, -0.000200175899512, -0.000277638709464, -0.00035214540002, 8.24705308575e-05
OPT_COMBINE_OBJECTIVE= NO
VALUE_OBJFUNC_FILENAME= of_eval.dat
NUMBER_PART= 1
CONSOLE= CONCISE
GRADIENT_METHOD= CONTINUOUS_ADJOINT
